dss_grid_Power_seq_kVA.txt

SYMMETRICAL COMPONENT POWERS BY CIRCUIT ELEMENT (first 3 phases)                                     Excess Power

Element                          Term    P1(kW)   Q1(kvar)       P2         Q2      P0      Q0       P_Norm      Q_Norm     P_Emerg    Q_Emerg

"Vsource.SOURCE"                  1     -894.3       -9.8        0.0        0.0     0.0     0.0
"Vsource.SOURCE"                  2        0.0        0.0        0.0        0.0     0.0     0.0
"Line.UG_LINE"                    1      582.6       67.0        0.0        0.0    -0.0    -0.0        0.0        0.0        0.0        0.0
"Line.UG_LINE"                    2     -582.2     -175.9       -0.0       -0.0    -0.0    -0.0
"Transformer.UG_1_TR"             1      291.1       88.0        0.0        0.0     0.0    -0.0        0.0        0.0        0.0        0.0
"Transformer.UG_1_TR"             2     -290.7      -55.5       -0.0       -0.0     0.0     0.0
"Transformer.UG_2_TR"             1      291.1       88.0        0.0        0.0     0.0    -0.0        0.0        0.0        0.0        0.0
"Transformer.UG_2_TR"             2     -290.7      -55.5       -0.0       -0.0     0.0     0.0
"Transformer.UG_SERV_TR"          1      201.3      110.9        0.0        0.0     0.0     0.0        0.0        0.0        0.0        0.0
"Transformer.UG_SERV_TR"          2     -200.0      -96.9       -0.0       -0.0     0.0     0.0
"Transformer.UG_PWM"              1      200.0        0.0       -0.0       -0.0    -0.0     0.0        0.0        0.0        0.0        0.0
"Transformer.UG_PWM"              2     -200.0       -0.0       -0.0        0.0     0.0    -0.0
"Transformer.UGS_PWM"             1      180.0        0.0        0.0       -0.0    -0.0     0.0        0.0        0.0        0.0        0.0
"Transformer.UGS_PWM"             2     -180.0       -0.0        0.0        0.0     0.0    -0.0
"Transformer.UGS_DC-DC-CONV"      1      -30.0       -0.0        0.0       -0.0    -0.0    -0.0        0.0        0.0        0.0        0.0
"Transformer.UGS_DC-DC-CONV"      2       30.0        0.0        0.0        0.0    -0.0     0.0
"Line.RS_LINE"                    1      150.7      -50.6       -0.0       -0.0     0.0    -0.0        0.0        0.0        0.0        0.0
"Line.RS_LINE"                    2     -150.7      -58.7        0.0        0.0    -0.0    -0.0
"Transformer.RS_TR"               1      150.7       58.7       -0.0       -0.0    -0.0     0.0        0.0        0.0        0.0        0.0
"Transformer.RS_TR"               2     -150.1      -48.5        0.0        0.0     0.0     0.0
"Line.EV-CHARGE_LINE"             1       40.1        0.1        0.0       -0.0     0.0    -0.0        0.0        0.0        0.0        0.0
"Line.EV-CHARGE_LINE"             2      -40.0        0.0       -0.0        0.0    -0.0     0.0
"Transformer.EV-FAST_PWM"         1       10.0        0.0        0.0       -0.0    -0.0    -0.0        0.0        0.0        0.0        0.0
"Transformer.EV-FAST_PWM"         2      -10.0       -0.0        0.0        0.0     0.0     0.0
"Transformer.EV-FAST_DC-DC-CONV"  1       50.0       -0.0       -0.0        0.0     0.0    -0.0        0.0        0.0        0.0        0.0
"Transformer.EV-FAST_DC-DC-CONV"  2      -50.0       -0.0        0.0       -0.0    -0.0     0.0
"Line.RES-WPG_LINE"               1      378.6      128.4        0.0        0.0     0.0    -0.0        0.0        0.0        0.0        0.0
"Line.RES-WPG_LINE"               2     -378.5     -201.1       -0.0       -0.0     0.0     0.0
"Transformer.RES_TR"              1      378.5      201.1        0.0        0.0     0.0     0.0        0.0        0.0        0.0        0.0
"Transformer.RES_TR"              2     -375.6     -174.1       -0.0       -0.0     0.0     0.0
"Line.USER_LINE"                  1      204.2      100.3        0.0        0.0    -0.0    -0.0        0.0        0.0        0.0        0.0
"Line.USER_LINE"                  2     -200.0      -96.9       -0.0       -0.0     0.0     0.0
"Line.PROS_LINE"                  1      171.4       73.8        0.0        0.0    -0.0    -0.0        0.0        0.0        0.0        0.0
"Line.PROS_LINE"                  2     -170.0      -72.6       -0.0       -0.0     0.0     0.0
"Transformer.PROS_BESS_PWM"       1       40.0       -0.0       -0.0       -0.0     0.0     0.0        0.0        0.0        0.0        0.0
"Transformer.PROS_BESS_PWM"       2      -40.0        0.0       -0.0        0.0     0.0    -0.0
"Transformer.PROS_PV_PWM"         1      -20.0       -0.0       -0.0       -0.0     0.0     0.0        0.0        0.0        0.0        0.0
"Transformer.PROS_PV_PWM"         2       20.0        0.0       -0.0       -0.0    -0.0     0.0
"Transformer.WPG_TR"              1     -217.7     -135.0       -0.0       -0.0    -0.0    -0.0        0.0        0.0        0.0        0.0
"Transformer.WPG_TR"              2      218.0      167.3        0.0        0.0     0.0     0.0
"Line.WPG_LINE"                   1     -278.0     -167.3       -0.0       -0.0    -0.0    -0.0        0.0        0.0        0.0        0.0
"Line.WPG_LINE"                   2      280.0      169.8        0.0        0.0     0.0     0.0
"Transformer.WPG_PWM"             1       60.0       -0.0        0.0        0.0     0.0    -0.0        0.0        0.0        0.0        0.0
"Transformer.WPG_PWM"             2      -60.0        0.0       -0.0       -0.0    -0.0     0.0
"Load.UG_SERV1_AC-LOAD"           1       80.0       38.7        0.0        0.0    -0.0    -0.0
"Load.UG_SERV2_AC-LOAD"           1      120.0       58.1        0.0        0.0    -0.0    -0.0
"Load.UG_DC-LOAD"                 1      200.0       -0.0        0.0        0.0    -0.0     0.0
"Load.UGS_DC-LOAD"                1      200.0       -0.0        0.0        0.0    -0.0    -0.0
"Generator.UGS_BESS"              1       10.0       -0.0        0.0        0.0    -0.0    -0.0
"Generator.UGS_1_PV"              1      -15.0        0.0       -0.0        0.0     0.0     0.0
"Generator.UGS_2_PV"              1      -15.0        0.0       -0.0        0.0     0.0     0.0
"Load.RS_1_AC-LOAD"               1       40.0       19.4        0.0        0.0     0.0     0.0
"Load.RS_2_AC-LOAD"               1       60.0       29.1        0.0        0.0     0.0     0.0
"Load.EV-CHARGE_AC-LOAD"          1       40.0       -0.0        0.0       -0.0     0.0    -0.0
"Generator.EV-FAST_BESS"          1      -10.0        0.0       -0.0       -0.0    -0.0    -0.0
"Generator.EV-FAST_PV"            1      -30.0        0.0       -0.0       -0.0    -0.0    -0.0
"Load.EV-FAST_DC-LOAD"            1       50.0       -0.0       -0.0        0.0    -0.0     0.0
"Load.USER_AC-LOAD"               1      200.0       96.9        0.0        0.0    -0.0    -0.0
"Load.PROS_1_AC-LOAD"             1      150.0       72.6        0.0        0.0    -0.0    -0.0
"Generator.PROS_BESS"             1       50.0       -0.0        0.0        0.0     0.0     0.0
"Generator.PROS_DC-MICRO-WIND"    1      -10.0        0.0       -0.0       -0.0    -0.0    -0.0
"Generator.PROS_PV"               1      -50.0        0.0       -0.0       -0.0    -0.0    -0.0
"Load.PROS_DC-LOAD"               1       30.0       -0.0        0.0        0.0     0.0     0.0
"Generator.WPG_1_WIND"            1     -140.0      -90.4       -0.0       -0.0    -0.0    -0.0
"Generator.WPG_2_WIND"            1     -140.0      -79.3       -0.0       -0.0    -0.0    -0.0
"Generator.WPG_BESS"              1      100.0       -0.0        0.0        0.0    -0.0     0.0
"Generator.WPG_PV"                1      -40.0        0.0       -0.0       -0.0     0.0    -0.0

Total Circuit Losses =   14.3 +j -135.3
